tests/data/9bus/9barrascc.pwf
TITU

DBAR
(Num)OETGb(   nome   )Gl( V)( A)( Pg)( Qg)( Qn)( Qm)(Bc  )( Pl)( Ql)( Sh)Are(Vf)M(1)(2)(3)(4)(5)(6)(7)(8)(9)(10
    1 L2 4BUS1          1050  0.  70.   0.-300. 300.                       11000
    2 L1 1BUS2          1050.151 163.   0.-300. 300.                       11000
    3 L1 3BUS3          1050.108  85.   0.-300. 300.                       11000
    4 L  2BUS4          1050.001                                           11000
    5 L  2BUS5          1049  0.                           125.  50.       11000
    6 L  2BUS6          1049  0.                            90.  30.       11000
    7 L  2BUS7          1050.089                                           11000
    8 L  2BUS8          1050 .06                           100.  35.       11000
    9 L  2BUS9          1050.069                                           11000
99999
DLIN
(De )d O d(Pa )NcEPM( R% )( X% )(Mvar)(Tap)(Tmn)(Tmx)(Phs)(Bc  )(Cn)(Ce)Ns(Cq)(1)(2)(3)(4)(5)(6)(7)(8)(9)(10
    1         4 1          .0576       1.05          -16.1      99999999  9999
    2         7 1          .0625       1.02                     99999999  9999
    3         9 1          .0586         1.          -16.1      99999999  9999
    5         4 1      .01  .085  .176                          99999999  9999
    6         4 1     .017  .092  .158                          99999999  9999
    7         5 1     .032  .161  .306                          99999999  9999
    7         8 1    .0085  .072  .149                          99999999  9999
    8         9 1    .0119 .1008  .209                          99999999  9999
    9         6 1     .039   .17  .358                          99999999  9999
99999
DELO
(No) O ( V ) ( P ) (   Identificacao  ) M E
   1    500. 1000.                      N L
99999
DCBA
(No) O TP(   Nome   )Gl( Vd)                                      ( Rs)(Elo
  10    0NEU              0.                                              1
  11    0NEUI             0.                                              1
  12   1+RECT          560.3                                              1
  13    +INV            560.                                              1
99999
DCLI
(De) O  (Pa)Nc P (  R )( L  )                               (Cn)
  12      13 1 F     5.
99999
DCNV
(No) O (CA ) (CC) (EL) T p (Ino) (Xc ) (Vfs) (Snt) (Rra) (Lra) (CCC) Fr
   1       9   12   10 R 4 1000.    3.  345. 1000.    0.
   2       4   13   11 I 4 1000.    3.  345. 1000.    0.
99999
DCCV
(No) O FMC (Vsp) (Marg (IMax (Dsp) (Dtn) (Dtm) (Tmn) (Tmx) (S (Vmn (Tmh) (Ttr)
   1     C   50.       9999.   26.    5.   30.    .9   1.2 60        1.2    .9
   2   F C   50.   15. 9999.   18.   18.   18.    .9   1.2 60        1.2    .9
99999
DGBT
(G ( kV)
 2  345.
 1   18.
 4  16.5
 3  13.8
99999
FIM
